<?xml version="1.0" encoding="UTF-8"?>
<Pathway xmlns="http://pathvisio.org/GPML/2013a" Name="Processing and activation of SUMO" Organism="Homo sapiens">
  <Comment Source="WikiPathways-description">The initial translation products of SUMO1, SUMO2, and SUMO3 are precursors that have extra amino acid residues  at the C-terminus (reviewed in Wang and Dasso 2009, Wilkinson and Henley 2010, Hannoun et al. 2010, Gareau and Lima 2010, Hay 2007). SUMO1 has 4 extra residues, SUMO2 has 2 extra residues, and SUMO3 has 11 extra residues. Proteolytic cleavage by SUMO peptidases (SENPs) removes the propeptide and leaves diglycine residues at the C-terminus. Each SENP has distinct preferences for certain SUMOs. SENP1 has highest activity on SUMO1; SENP2 and SENP5 have highest activity on SUMO2 (Shen et al. 2006, Reverter and Lima 2006, Mikolajczyk et al. 2007). SENP1 and SENP2 are predominantly nucleoplasmic (Bailey and O'Hare 2004, Kim et al. 2005, Zhang et al. 2002, Hang and Dasso 2002, Itahana et al. 2006) and SENP5 is predominantly nucleolar (Di Bacco et al. 2006, Gong and Yeh 2006), therefore the processing reactions are believed to occur in the nucleus. The processed SUMO is then activated by formation of a thioester bond with a cysteine residue of an E1 enzyme, UBA2 (SAE2) in a complex with SAE1. SUMO is then transferred from the E1 enzyme to an E2 enzyme, UBC9 (UBE2I).
 View original pathway at [http://www.reactome.org/PathwayBrowser/#DIAGRAM=3215018 Reactome].</Comment>
  <Comment Source="Reactome-Converter">Pathway is converted from Reactome ID: 3215018</Comment>
  <Comment Source="Reactome-version">Reactome version: 88</Comment>
  <Comment Source="Reactome Author">Reactome Author: May, Bruce</Comment>
  <BiopaxRef>e48</BiopaxRef>
  <BiopaxRef>f35</BiopaxRef>
  <BiopaxRef>bba</BiopaxRef>
  <BiopaxRef>c85</BiopaxRef>
  <BiopaxRef>ba0</BiopaxRef>
  <BiopaxRef>fa1</BiopaxRef>
  <BiopaxRef>f27</BiopaxRef>
  <BiopaxRef>b00</BiopaxRef>
  <BiopaxRef>cf1</BiopaxRef>
  <BiopaxRef>d9a</BiopaxRef>
  <BiopaxRef>ba6</BiopaxRef>
  <BiopaxRef>b50</BiopaxRef>
  <BiopaxRef>c18</BiopaxRef>
  <BiopaxRef>a19</BiopaxRef>
  <Attribute Key="reactome_id" Value="3215018" />
  <Graphics BoardWidth="909.0" BoardHeight="1621.0" />
  <DataNode TextLabel="SUMO1(2-101)" GraphId="ff6cf" Type="Protein">
    <Attribute Key="cellular_location" Value="nucleoplasm" />
    <Graphics CenterX="222.0" CenterY="107.0" Width="110.0" Height="32.0" ZOrder="32768" FontSize="10" Valign="Middle" />
    <Xref Database="Uniprot-TrEMBL" ID="P63165" />
  </DataNode>
  <DataNode TextLabel="SUMO1" GraphId="dc8c3" Type="Protein">
    <Attribute Key="cellular_location" Value="nucleoplasm" />
    <Graphics CenterX="224.5" CenterY="244.5" Width="61.0" Height="31.0" ZOrder="32768" FontSize="10" Valign="Middle" />
    <Xref Database="Uniprot-TrEMBL" ID="P63165" />
  </DataNode>
  <DataNode TextLabel="SENP1,2,5" GraphId="b17b2" Type="Complex">
    <BiopaxRef>bba</BiopaxRef>
    <Attribute Key="cellular_location" Value="nucleoplasm" />
    <Graphics CenterX="355.5" CenterY="153.0" Width="83.0" Height="28.0" ZOrder="32768" FontSize="10" Valign="Middle" ShapeType="RoundedRectangle" Color="a52a2a" />
    <Xref Database="Reactome" ID="R-HSA-2990834" />
  </DataNode>
  <DataNode TextLabel="SENP1 " GraphId="ab5b9" Type="Protein" GroupRef="c8c52">
    <BiopaxRef>ba0</BiopaxRef>
    <BiopaxRef>db8</BiopaxRef>
    <BiopaxRef>fa1</BiopaxRef>
    <Attribute Key="cellular_location" Value="nucleoplasm" />
    <Attribute Key="complex_id" Value="R-HSA-2990834" />
    <Attribute Key="copies_num" Value="1" />
    <Graphics CenterX="100.0" CenterY="909.0" Width="100.0" Height="20.0" ZOrder="32768" FontSize="10" Valign="Middle" />
    <Xref Database="Uniprot-TrEMBL" ID="Q9P0U3" />
  </DataNode>
  <DataNode TextLabel="SENP2 " GraphId="d43d5" Type="Protein" GroupRef="c8c52">
    <BiopaxRef>f27</BiopaxRef>
    <Attribute Key="cellular_location" Value="nucleoplasm" />
    <Attribute Key="complex_id" Value="R-HSA-2990834" />
    <Attribute Key="copies_num" Value="1" />
    <Graphics CenterX="100.0" CenterY="929.0" Width="100.0" Height="20.0" ZOrder="32768" FontSize="10" Valign="Middle" />
    <Xref Database="Uniprot-TrEMBL" ID="Q9HC62" />
  </DataNode>
  <DataNode TextLabel="SENP5 " GraphId="dab2e" Type="Protein" GroupRef="c8c52">
    <BiopaxRef>b3c</BiopaxRef>
    <Attribute Key="cellular_location" Value="nucleoplasm" />
    <Attribute Key="complex_id" Value="R-HSA-2990834" />
    <Attribute Key="copies_num" Value="1" />
    <Graphics CenterX="100.0" CenterY="949.0" Width="100.0" Height="20.0" ZOrder="32768" FontSize="10" Valign="Middle" />
    <Xref Database="Uniprot-TrEMBL" ID="Q96HI0" />
  </DataNode>
  <DataNode TextLabel="SUMO2(1-95)" GraphId="e0d78" Type="Protein">
    <Attribute Key="cellular_location" Value="nucleoplasm" />
    <Graphics CenterX="492.0" CenterY="108.5" Width="100.0" Height="31.0" ZOrder="32768" FontSize="10" Valign="Middle" />
    <Xref Database="Uniprot-TrEMBL" ID="P61956" />
  </DataNode>
  <DataNode TextLabel="SUMO2" GraphId="afa64" Type="Protein">
    <BiopaxRef>c25</BiopaxRef>
    <BiopaxRef>e88</BiopaxRef>
    <Attribute Key="cellular_location" Value="nucleoplasm" />
    <Graphics CenterX="490.5" CenterY="244.0" Width="57.0" Height="30.0" ZOrder="32768" FontSize="10" Valign="Middle" />
    <Xref Database="Uniprot-TrEMBL" ID="P61956" />
  </DataNode>
  <DataNode TextLabel="SUMO3(1-103)" GraphId="ecff8" Type="Protein">
    <Attribute Key="cellular_location" Value="nucleoplasm" />
    <Graphics CenterX="717.5" CenterY="107.5" Width="105.0" Height="31.0" ZOrder="32768" FontSize="10" Valign="Middle" />
    <Xref Database="Uniprot-TrEMBL" ID="P55854" />
  </DataNode>
  <DataNode TextLabel="SUMO3" GraphId="e72b5" Type="Protein">
    <BiopaxRef>e88</BiopaxRef>
    <Attribute Key="cellular_location" Value="nucleoplasm" />
    <Graphics CenterX="719.5" CenterY="244.0" Width="61.0" Height="26.0" ZOrder="32768" FontSize="10" Valign="Middle" />
    <Xref Database="Uniprot-TrEMBL" ID="P55854" />
  </DataNode>
  <DataNode TextLabel="ATP" GraphId="febd5" Type="Metabolite">
    <Attribute Key="cellular_location" Value="nucleoplasm" />
    <Graphics CenterX="147.5" CenterY="289.5" Width="49.0" Height="31.0" ZOrder="32768" FontSize="10" Valign="Middle" Color="0000ff" />
    <Xref Database="ChEBI" ID="CHEBI:30616" />
  </DataNode>
  <DataNode TextLabel="UBA2:SAE1" GraphId="aa1e5" Type="Complex">
    <BiopaxRef>e42</BiopaxRef>
    <Attribute Key="cellular_location" Value="nucleoplasm" />
    <Graphics CenterX="366.0" CenterY="338.0" Width="88.0" Height="28.0" ZOrder="32768" FontSize="10" Valign="Middle" ShapeType="Hexagon" Color="a52a2a" />
    <Xref Database="Reactome" ID="R-HSA-2990843" />
  </DataNode>
  <DataNode TextLabel="SAE1 " GraphId="a53eb" Type="Protein" GroupRef="b04b1">
    <BiopaxRef>e42</BiopaxRef>
    <Attribute Key="cellular_location" Value="nucleoplasm" />
    <Attribute Key="complex_id" Value="R-HSA-2990843" />
    <Attribute Key="copies_num" Value="1" />
    <Graphics CenterX="100.0" CenterY="1009.0" Width="100.0" Height="20.0" ZOrder="32768" FontSize="10" Valign="Middle" />
    <Xref Database="Uniprot-TrEMBL" ID="Q9UBE0" />
  </DataNode>
  <DataNode TextLabel="UBA2 " GraphId="f984c" Type="Protein" GroupRef="b04b1">
    <BiopaxRef>e42</BiopaxRef>
    <Attribute Key="cellular_location" Value="nucleoplasm" />
    <Attribute Key="complex_id" Value="R-HSA-2990843" />
    <Attribute Key="copies_num" Value="1" />
    <Graphics CenterX="100.0" CenterY="1029.0" Width="100.0" Height="20.0" ZOrder="32768" FontSize="10" Valign="Middle" />
    <Xref Database="Uniprot-TrEMBL" ID="Q9UBT2" />
  </DataNode>
  <DataNode TextLabel="SUMO1:UBA2:SAE1" GraphId="f75d0" Type="Complex">
    <BiopaxRef>e42</BiopaxRef>
    <Attribute Key="cellular_location" Value="nucleoplasm" />
    <Graphics CenterX="224.0" CenterY="542.0" Width="130.0" Height="30.0" ZOrder="32768" FontSize="10" Valign="Middle" ShapeType="Hexagon" Color="a52a2a" />
    <Xref Database="Reactome" ID="R-HSA-2993793" />
  </DataNode>
  <DataNode TextLabel="SAE1 " GraphId="d42a8" Type="Protein" GroupRef="a2f2c">
    <BiopaxRef>e42</BiopaxRef>
    <Attribute Key="cellular_location" Value="nucleoplasm" />
    <Attribute Key="complex_id" Value="R-HSA-2993793" />
    <Attribute Key="copies_num" Value="1" />
    <Graphics CenterX="100.0" CenterY="1089.0" Width="100.0" Height="20.0" ZOrder="32768" FontSize="10" Valign="Middle" />
    <Xref Database="Uniprot-TrEMBL" ID="Q9UBE0" />
  </DataNode>
  <DataNode TextLabel="SUMO1-C173-UBA2 " GraphId="cc172" Type="Protein" GroupRef="a2f2c">
    <BiopaxRef>e42</BiopaxRef>
    <Attribute Key="cellular_location" Value="nucleoplasm" />
    <Attribute Key="complex_id" Value="R-HSA-2993793" />
    <Attribute Key="copies_num" Value="1" />
    <Graphics CenterX="100.0" CenterY="1109.0" Width="100.0" Height="20.0" ZOrder="32768" FontSize="10" Valign="Middle" />
    <Xref Database="Uniprot-TrEMBL" ID="Q9UBT2" />
  </DataNode>
  <DataNode TextLabel="UBA2-G97-SUMO1 " GraphId="ccca4" Type="Protein" GroupRef="a2f2c">
    <Attribute Key="cellular_location" Value="nucleoplasm" />
    <Attribute Key="complex_id" Value="R-HSA-2993793" />
    <Attribute Key="copies_num" Value="1" />
    <Graphics CenterX="100.0" CenterY="1129.0" Width="100.0" Height="20.0" ZOrder="32768" FontSize="10" Valign="Middle" />
    <Xref Database="Uniprot-TrEMBL" ID="P63165" />
  </DataNode>
  <DataNode TextLabel="AMP" GraphId="ada34" Type="Metabolite">
    <Attribute Key="cellular_location" Value="nucleoplasm" />
    <Graphics CenterX="407.0" CenterY="467.5" Width="50.0" Height="33.0" ZOrder="32768" FontSize="10" Valign="Middle" Color="0000ff" />
    <Xref Database="ChEBI" ID="CHEBI:456215" />
  </DataNode>
  <DataNode TextLabel="PPi" GraphId="f1cdf" Type="Metabolite">
    <Attribute Key="cellular_location" Value="nucleoplasm" />
    <Graphics CenterX="452.0" CenterY="493.5" Width="40.0" Height="31.0" ZOrder="32768" FontSize="10" Valign="Middle" Color="0000ff" />
    <Xref Database="ChEBI" ID="CHEBI:33019" />
  </DataNode>
  <DataNode TextLabel="ATP" GraphId="bbc8a" Type="Metabolite">
    <Attribute Key="cellular_location" Value="nucleoplasm" />
    <Graphics CenterX="403.5" CenterY="289.0" Width="47.0" Height="36.0" ZOrder="32768" FontSize="10" Valign="Middle" Color="0000ff" />
    <Xref Database="ChEBI" ID="CHEBI:30616" />
  </DataNode>
  <DataNode TextLabel="SUMO2:UBA2:SAE1" GraphId="a5455" Type="Complex">
    <BiopaxRef>e42</BiopaxRef>
    <Attribute Key="cellular_location" Value="nucleoplasm" />
    <Graphics CenterX="488.5" CenterY="542.5" Width="131.0" Height="29.0" ZOrder="32768" FontSize="10" Valign="Middle" ShapeType="Hexagon" Color="a52a2a" />
    <Xref Database="Reactome" ID="R-HSA-2993775" />
  </DataNode>
  <DataNode TextLabel="SAE1 " GraphId="c4f74" Type="Protein" GroupRef="b26bc">
    <BiopaxRef>e42</BiopaxRef>
    <Attribute Key="cellular_location" Value="nucleoplasm" />
    <Attribute Key="complex_id" Value="R-HSA-2993775" />
    <Attribute Key="copies_num" Value="1" />
    <Graphics CenterX="100.0" CenterY="1189.0" Width="100.0" Height="20.0" ZOrder="32768" FontSize="10" Valign="Middle" />
    <Xref Database="Uniprot-TrEMBL" ID="Q9UBE0" />
  </DataNode>
  <DataNode TextLabel="SUMO2-C173-UBA2 " GraphId="c8f25" Type="Protein" GroupRef="b26bc">
    <BiopaxRef>e42</BiopaxRef>
    <Attribute Key="cellular_location" Value="nucleoplasm" />
    <Attribute Key="complex_id" Value="R-HSA-2993775" />
    <Attribute Key="copies_num" Value="1" />
    <Graphics CenterX="100.0" CenterY="1209.0" Width="100.0" Height="20.0" ZOrder="32768" FontSize="10" Valign="Middle" />
    <Xref Database="Uniprot-TrEMBL" ID="Q9UBT2" />
  </DataNode>
  <DataNode TextLabel="UBA2-G93-SUMO2 " GraphId="f4b75" Type="Protein" GroupRef="b26bc">
    <BiopaxRef>c25</BiopaxRef>
    <BiopaxRef>e88</BiopaxRef>
    <Attribute Key="cellular_location" Value="nucleoplasm" />
    <Attribute Key="complex_id" Value="R-HSA-2993775" />
    <Attribute Key="copies_num" Value="1" />
    <Graphics CenterX="100.0" CenterY="1229.0" Width="100.0" Height="20.0" ZOrder="32768" FontSize="10" Valign="Middle" />
    <Xref Database="Uniprot-TrEMBL" ID="P61956" />
  </DataNode>
  <DataNode TextLabel="ATP" GraphId="a5f69" Type="Metabolite">
    <Attribute Key="cellular_location" Value="nucleoplasm" />
    <Graphics CenterX="641.0" CenterY="294.0" Width="48.0" Height="32.0" ZOrder="32768" FontSize="10" Valign="Middle" Color="0000ff" />
    <Xref Database="ChEBI" ID="CHEBI:30616" />
  </DataNode>
  <DataNode TextLabel="SUMO3:UBA2:SAE1" GraphId="c6ac6" Type="Complex">
    <BiopaxRef>e42</BiopaxRef>
    <Attribute Key="cellular_location" Value="nucleoplasm" />
    <Graphics CenterX="718.0" CenterY="542.5" Width="124.0" Height="29.0" ZOrder="32768" FontSize="10" Valign="Middle" ShapeType="Hexagon" Color="a52a2a" />
    <Xref Database="Reactome" ID="R-HSA-2993762" />
  </DataNode>
  <DataNode TextLabel="SAE1 " GraphId="e3185" Type="Protein" GroupRef="e235d">
    <BiopaxRef>e42</BiopaxRef>
    <Attribute Key="cellular_location" Value="nucleoplasm" />
    <Attribute Key="complex_id" Value="R-HSA-2993762" />
    <Attribute Key="copies_num" Value="1" />
    <Graphics CenterX="100.0" CenterY="1289.0" Width="100.0" Height="20.0" ZOrder="32768" FontSize="10" Valign="Middle" />
    <Xref Database="Uniprot-TrEMBL" ID="Q9UBE0" />
  </DataNode>
  <DataNode TextLabel="SUMO3-C173-UBA2 " GraphId="e70ea" Type="Protein" GroupRef="e235d">
    <BiopaxRef>e42</BiopaxRef>
    <Attribute Key="cellular_location" Value="nucleoplasm" />
    <Attribute Key="complex_id" Value="R-HSA-2993762" />
    <Attribute Key="copies_num" Value="1" />
    <Graphics CenterX="100.0" CenterY="1309.0" Width="100.0" Height="20.0" ZOrder="32768" FontSize="10" Valign="Middle" />
    <Xref Database="Uniprot-TrEMBL" ID="Q9UBT2" />
  </DataNode>
  <DataNode TextLabel="UBA2-G92-SUMO3 " GraphId="c5147" Type="Protein" GroupRef="e235d">
    <BiopaxRef>e88</BiopaxRef>
    <Attribute Key="cellular_location" Value="nucleoplasm" />
    <Attribute Key="complex_id" Value="R-HSA-2993762" />
    <Attribute Key="copies_num" Value="1" />
    <Graphics CenterX="100.0" CenterY="1329.0" Width="100.0" Height="20.0" ZOrder="32768" FontSize="10" Valign="Middle" />
    <Xref Database="Uniprot-TrEMBL" ID="P55854" />
  </DataNode>
  <DataNode TextLabel="UBA2:SAE1" GraphId="c852a" Type="Complex">
    <BiopaxRef>e42</BiopaxRef>
    <Attribute Key="cellular_location" Value="nucleoplasm" />
    <Graphics CenterX="101.0" CenterY="336.0" Width="88.0" Height="28.0" ZOrder="32768" FontSize="10" Valign="Middle" ShapeType="Hexagon" Color="a52a2a" />
    <Xref Database="Reactome" ID="R-HSA-2990843" />
  </DataNode>
  <DataNode TextLabel="SAE1 " GraphId="f4c49" Type="Protein" GroupRef="d96ca">
    <BiopaxRef>e42</BiopaxRef>
    <Attribute Key="cellular_location" Value="nucleoplasm" />
    <Attribute Key="complex_id" Value="R-HSA-2990843" />
    <Attribute Key="copies_num" Value="1" />
    <Graphics CenterX="100.0" CenterY="1389.0" Width="100.0" Height="20.0" ZOrder="32768" FontSize="10" Valign="Middle" />
    <Xref Database="Uniprot-TrEMBL" ID="Q9UBE0" />
  </DataNode>
  <DataNode TextLabel="UBA2 " GraphId="bf4cb" Type="Protein" GroupRef="d96ca">
    <BiopaxRef>e42</BiopaxRef>
    <Attribute Key="cellular_location" Value="nucleoplasm" />
    <Attribute Key="complex_id" Value="R-HSA-2990843" />
    <Attribute Key="copies_num" Value="1" />
    <Graphics CenterX="100.0" CenterY="1409.0" Width="100.0" Height="20.0" ZOrder="32768" FontSize="10" Valign="Middle" />
    <Xref Database="Uniprot-TrEMBL" ID="Q9UBT2" />
  </DataNode>
  <DataNode TextLabel="UBA2:SAE1" GraphId="bc87a" Type="Complex">
    <BiopaxRef>e42</BiopaxRef>
    <Attribute Key="cellular_location" Value="nucleoplasm" />
    <Graphics CenterX="592.0" CenterY="334.0" Width="88.0" Height="28.0" ZOrder="32768" FontSize="10" Valign="Middle" ShapeType="Hexagon" Color="a52a2a" />
    <Xref Database="Reactome" ID="R-HSA-2990843" />
  </DataNode>
  <DataNode TextLabel="SAE1 " GraphId="af0ad" Type="Protein" GroupRef="b3bb8">
    <BiopaxRef>e42</BiopaxRef>
    <Attribute Key="cellular_location" Value="nucleoplasm" />
    <Attribute Key="complex_id" Value="R-HSA-2990843" />
    <Attribute Key="copies_num" Value="1" />
    <Graphics CenterX="100.0" CenterY="1469.0" Width="100.0" Height="20.0" ZOrder="32768" FontSize="10" Valign="Middle" />
    <Xref Database="Uniprot-TrEMBL" ID="Q9UBE0" />
  </DataNode>
  <DataNode TextLabel="UBA2 " GraphId="c1af7" Type="Protein" GroupRef="b3bb8">
    <BiopaxRef>e42</BiopaxRef>
    <Attribute Key="cellular_location" Value="nucleoplasm" />
    <Attribute Key="complex_id" Value="R-HSA-2990843" />
    <Attribute Key="copies_num" Value="1" />
    <Graphics CenterX="100.0" CenterY="1489.0" Width="100.0" Height="20.0" ZOrder="32768" FontSize="10" Valign="Middle" />
    <Xref Database="Uniprot-TrEMBL" ID="Q9UBT2" />
  </DataNode>
  <DataNode TextLabel="AMP" GraphId="f12ae" Type="Metabolite">
    <Attribute Key="cellular_location" Value="nucleoplasm" />
    <Graphics CenterX="143.0" CenterY="465.5" Width="50.0" Height="33.0" ZOrder="32768" FontSize="10" Valign="Middle" Color="0000ff" />
    <Xref Database="ChEBI" ID="CHEBI:456215" />
  </DataNode>
  <DataNode TextLabel="PPi" GraphId="f8718" Type="Metabolite">
    <Attribute Key="cellular_location" Value="nucleoplasm" />
    <Graphics CenterX="185.0" CenterY="494.5" Width="40.0" Height="31.0" ZOrder="32768" FontSize="10" Valign="Middle" Color="0000ff" />
    <Xref Database="ChEBI" ID="CHEBI:33019" />
  </DataNode>
  <DataNode TextLabel="PPi" GraphId="be9c7" Type="Metabolite">
    <Attribute Key="cellular_location" Value="nucleoplasm" />
    <Graphics CenterX="684.0" CenterY="496.5" Width="40.0" Height="31.0" ZOrder="32768" FontSize="10" Valign="Middle" Color="0000ff" />
    <Xref Database="ChEBI" ID="CHEBI:33019" />
  </DataNode>
  <DataNode TextLabel="AMP" GraphId="ebb11" Type="Metabolite">
    <Attribute Key="cellular_location" Value="nucleoplasm" />
    <Graphics CenterX="641.0" CenterY="466.5" Width="50.0" Height="33.0" ZOrder="32768" FontSize="10" Valign="Middle" Color="0000ff" />
    <Xref Database="ChEBI" ID="CHEBI:456215" />
  </DataNode>
  <DataNode TextLabel="UBE2I" GraphId="f9b09" Type="Protein">
    <Attribute Key="cellular_location" Value="nucleoplasm" />
    <Graphics CenterX="168.0" CenterY="592.0" Width="54.0" Height="28.0" ZOrder="32768" FontSize="10" Valign="Middle" />
    <Xref Database="Uniprot-TrEMBL" ID="P63279" />
  </DataNode>
  <DataNode TextLabel="SUMO1:C93-UBE2I" GraphId="f2f28" Type="Complex">
    <Attribute Key="cellular_location" Value="nucleoplasm" />
    <Graphics CenterX="226.5" CenterY="776.5" Width="131.0" Height="27.0" ZOrder="32768" FontSize="10" Valign="Middle" ShapeType="Hexagon" Color="a52a2a" />
    <Xref Database="Reactome" ID="R-HSA-2993783" />
  </DataNode>
  <DataNode TextLabel="SUMO1-C93-UBE2I " GraphId="b09da" Type="Protein" GroupRef="dc412">
    <Attribute Key="cellular_location" Value="nucleoplasm" />
    <Attribute Key="complex_id" Value="R-HSA-2993783" />
    <Attribute Key="copies_num" Value="1" />
    <Graphics CenterX="100.0" CenterY="1549.0" Width="100.0" Height="20.0" ZOrder="32768" FontSize="10" Valign="Middle" />
    <Xref Database="Uniprot-TrEMBL" ID="P63279" />
  </DataNode>
  <DataNode TextLabel="UBE2I-G97-SUMO1 " GraphId="abd01" Type="Protein" GroupRef="dc412">
    <Attribute Key="cellular_location" Value="nucleoplasm" />
    <Attribute Key="complex_id" Value="R-HSA-2993783" />
    <Attribute Key="copies_num" Value="1" />
    <Graphics CenterX="100.0" CenterY="1569.0" Width="100.0" Height="20.0" ZOrder="32768" FontSize="10" Valign="Middle" />
    <Xref Database="Uniprot-TrEMBL" ID="P63165" />
  </DataNode>
  <DataNode TextLabel="RWDD3" GraphId="f31e5" Type="Protein">
    <Attribute Key="cellular_location" Value="nucleoplasm" />
    <Graphics CenterX="296.5" CenterY="641.0" Width="57.0" Height="28.0" ZOrder="32768" FontSize="10" Valign="Middle" />
    <Xref Database="Uniprot-TrEMBL" ID="Q9Y3V2" />
  </DataNode>
  <DataNode TextLabel="SUMO2:UBE2I" GraphId="a36fa" Type="Complex">
    <Attribute Key="cellular_location" Value="nucleoplasm" />
    <Graphics CenterX="493.5" CenterY="776.5" Width="105.0" Height="27.0" ZOrder="32768" FontSize="10" Valign="Middle" ShapeType="Hexagon" Color="a52a2a" />
    <Xref Database="Reactome" ID="R-HSA-2993778" />
  </DataNode>
  <DataNode TextLabel="SUMO2-C93-UBE2I " GraphId="c8419" Type="Protein" GroupRef="d010d">
    <Attribute Key="cellular_location" Value="nucleoplasm" />
    <Attribute Key="complex_id" Value="R-HSA-2993778" />
    <Attribute Key="copies_num" Value="1" />
    <Graphics CenterX="240.0" CenterY="949.0" Width="100.0" Height="20.0" ZOrder="32768" FontSize="10" Valign="Middle" />
    <Xref Database="Uniprot-TrEMBL" ID="P63279" />
  </DataNode>
  <DataNode TextLabel="UBE2I-G93-SUMO2 " GraphId="bcf5d" Type="Protein" GroupRef="d010d">
    <BiopaxRef>c25</BiopaxRef>
    <BiopaxRef>e88</BiopaxRef>
    <Attribute Key="cellular_location" Value="nucleoplasm" />
    <Attribute Key="complex_id" Value="R-HSA-2993778" />
    <Attribute Key="copies_num" Value="1" />
    <Graphics CenterX="240.0" CenterY="969.0" Width="100.0" Height="20.0" ZOrder="32768" FontSize="10" Valign="Middle" />
    <Xref Database="Uniprot-TrEMBL" ID="P61956" />
  </DataNode>
  <DataNode TextLabel="UBE2I" GraphId="d4223" Type="Protein">
    <Attribute Key="cellular_location" Value="nucleoplasm" />
    <Graphics CenterX="431.0" CenterY="599.0" Width="54.0" Height="28.0" ZOrder="32768" FontSize="10" Valign="Middle" />
    <Xref Database="Uniprot-TrEMBL" ID="P63279" />
  </DataNode>
  <DataNode TextLabel="SUMO3:UBE2I" GraphId="a9678" Type="Complex">
    <Attribute Key="cellular_location" Value="nucleoplasm" />
    <Graphics CenterX="725.0" CenterY="776.0" Width="94.0" Height="26.0" ZOrder="32768" FontSize="10" Valign="Middle" ShapeType="Hexagon" Color="a52a2a" />
    <Xref Database="Reactome" ID="R-HSA-2993782" />
  </DataNode>
  <DataNode TextLabel="SUMO3-C93-UBE2I " GraphId="bb073" Type="Protein" GroupRef="c3917">
    <Attribute Key="cellular_location" Value="nucleoplasm" />
    <Attribute Key="complex_id" Value="R-HSA-2993782" />
    <Attribute Key="copies_num" Value="1" />
    <Graphics CenterX="240.0" CenterY="1029.0" Width="100.0" Height="20.0" ZOrder="32768" FontSize="10" Valign="Middle" />
    <Xref Database="Uniprot-TrEMBL" ID="P63279" />
  </DataNode>
  <DataNode TextLabel="UBE2I-G92-SUMO3 " GraphId="bf37a" Type="Protein" GroupRef="c3917">
    <BiopaxRef>e88</BiopaxRef>
    <Attribute Key="cellular_location" Value="nucleoplasm" />
    <Attribute Key="complex_id" Value="R-HSA-2993782" />
    <Attribute Key="copies_num" Value="1" />
    <Graphics CenterX="240.0" CenterY="1049.0" Width="100.0" Height="20.0" ZOrder="32768" FontSize="10" Valign="Middle" />
    <Xref Database="Uniprot-TrEMBL" ID="P55854" />
  </DataNode>
  <DataNode TextLabel="UBE2I" GraphId="a138d" Type="Protein">
    <Attribute Key="cellular_location" Value="nucleoplasm" />
    <Graphics CenterX="647.0" CenterY="604.0" Width="54.0" Height="28.0" ZOrder="32768" FontSize="10" Valign="Middle" />
    <Xref Database="Uniprot-TrEMBL" ID="P63279" />
  </DataNode>
  <Interaction GraphId="fce66">
    <Comment Source="Reactome">The SUMO1 precursor has 4 extra residues at the C-terminus which can be removed endoproteolytically by either SENP1, SENP2, or SENP5 (Zheng and Au, 2005, Mikolajczyk et al. 2007). The order of processing activity is: SENP1 greater than SENP2 greater than SENP5 (Mikolajczyk et al. 2007). Both SENP1 and SENP2 shuttle between the nucleus and cytoplasmic and both are predominantly nucleoplasmic (Bailey and O'Hare 2004, Kim et al. 2005, Zhang et al. 2002, Hang and Dasso 2002, Itahana et al. 2006).</Comment>
    <BiopaxRef>a48</BiopaxRef>
    <BiopaxRef>ba6</BiopaxRef>
    <BiopaxRef>ba0</BiopaxRef>
    <BiopaxRef>fa1</BiopaxRef>
    <BiopaxRef>f27</BiopaxRef>
    <BiopaxRef>b00</BiopaxRef>
    <BiopaxRef>cf1</BiopaxRef>
    <Graphics ConnectorType="Segmented" ZOrder="12288" LineThickness="1.0">
      <Point X="222.0" Y="126.0" />
      <Point X="223.0" Y="226.0" />
      <Anchor Position="0.0" Shape="None" GraphId="e687e" />
      <Anchor Position="0.99" Shape="None" GraphId="f3d75" />
      <Anchor Position="0.5" Shape="None" GraphId="b3568" />
    </Graphics>
    <Xref Database="Reactome" ID="R-HSA-2990840" />
  </Interaction>
  <Interaction GraphId="d5963">
    <Graphics ConnectorType="Segmented" ZOrder="12288" LineThickness="1.0">
      <Point X="222.0" Y="123.0" GraphRef="ff6cf" RelX="0.0" RelY="1.0" />
      <Point X="222.0" Y="126.0" GraphRef="e687e" RelX="0.0" RelY="0.0" />
    </Graphics>
    <Xref Database="Reactome" ID="R-HSA-2990840" />
  </Interaction>
  <Interaction GraphId="c861c">
    <Graphics ConnectorType="Segmented" ZOrder="12288" LineThickness="1.0">
      <Point X="223.0" Y="226.0" GraphRef="f3d75" RelX="0.009999999999990905" RelY="1.0" />
      <Point X="224.0" Y="229.0" GraphRef="dc8c3" RelX="-0.01639344262295082" RelY="-1.0" ArrowHead="Arrow" />
    </Graphics>
    <Xref Database="Reactome" ID="R-HSA-2990840" />
  </Interaction>
  <Interaction GraphId="fef06">
    <Graphics ConnectorType="Segmented" ZOrder="12288" LineThickness="1.0">
      <Point X="314.0" Y="153.0" GraphRef="b17b2" RelX="-1.0" RelY="0.0" />
      <Point X="223.0" Y="177.0" GraphRef="b3568" RelX="0.5" RelY="1.0" ArrowHead="mim-catalysis" />
    </Graphics>
    <Xref Database="Reactome" ID="R-HSA-2990840" />
  </Interaction>
  <Interaction GraphId="f4065">
    <Comment Source="Reactome">The SUMO2 precursor has 2 extra residues at the C-terminus which can be removed endoproteolytically by SENP1, SENP2, or SENP5 (Zheng and Au, 2005, Gong and Yeh 2006, Mikolajczyk et al. 2007). The order of processing activity is: SENP1 greater than SENP2 greater than SENP5 (Mikolajczyk et al. 2007). SENP2 and SENP5 have highest activity on SUMO2, however the processing activity of SENP1 is higher overall (Mikolajczyk et al. 2007). SENP1 and SENP2 shuttle between the nucleus and cytosol and are predominantly nuclear (Bailey and O'Hare 2004, Kim et al. 2005, Zhang et al. 2002, Hang and Dasso 2002, Itahana et al. 2006). SENP5 is located in the nucleolus (Di Bacco et al. 2006, Gong and Yeh 2006).</Comment>
    <BiopaxRef>a48</BiopaxRef>
    <BiopaxRef>b3c</BiopaxRef>
    <BiopaxRef>ba6</BiopaxRef>
    <BiopaxRef>ba0</BiopaxRef>
    <BiopaxRef>fa1</BiopaxRef>
    <BiopaxRef>f27</BiopaxRef>
    <BiopaxRef>b00</BiopaxRef>
    <BiopaxRef>cf1</BiopaxRef>
    <BiopaxRef>d9a</BiopaxRef>
    <Graphics ConnectorType="Segmented" ZOrder="12288" LineThickness="1.0">
      <Point X="491.0" Y="127.0" />
      <Point X="489.0" Y="226.0" />
      <Anchor Position="0.0" Shape="None" GraphId="fdab8" />
      <Anchor Position="0.99" Shape="None" GraphId="b424d" />
      <Anchor Position="0.5" Shape="None" GraphId="dd372" />
    </Graphics>
    <Xref Database="Reactome" ID="R-HSA-2990842" />
  </Interaction>
  <Interaction GraphId="b59a7">
    <Graphics ConnectorType="Segmented" ZOrder="12288" LineThickness="1.0">
      <Point X="492.0" Y="123.0" GraphRef="e0d78" RelX="0.0" RelY="0.9354838709677419" />
      <Point X="491.0" Y="127.0" GraphRef="fdab8" RelX="0.0" RelY="0.0" />
    </Graphics>
    <Xref Database="Reactome" ID="R-HSA-2990842" />
  </Interaction>
  <Interaction GraphId="eb701">
    <Graphics ConnectorType="Segmented" ZOrder="12288" LineThickness="1.0">
      <Point X="489.0" Y="226.0" GraphRef="b424d" RelX="-0.01999999999998181" RelY="0.9900000000000091" />
      <Point X="490.0" Y="229.0" GraphRef="afa64" RelX="-0.017543859649122806" RelY="-1.0" ArrowHead="Arrow" />
    </Graphics>
    <Xref Database="Reactome" ID="R-HSA-2990842" />
  </Interaction>
  <Interaction GraphId="ab73b">
    <Graphics ConnectorType="Segmented" ZOrder="12288" LineThickness="1.0">
      <Point X="396.0" Y="153.0" GraphRef="b17b2" RelX="0.9759036144578314" RelY="0.0" />
      <Point X="489.0" Y="186.0" GraphRef="dd372" RelX="-1.0" RelY="9.5" ArrowHead="mim-catalysis" />
    </Graphics>
    <Xref Database="Reactome" ID="R-HSA-2990842" />
  </Interaction>
  <Interaction GraphId="fbc51">
    <Comment Source="Reactome">The SUMO3 precursor has 11 extra residues at the C-terminus which can be removed endoproteolytically by SENP1, SENP2, or SENP5 (Zheng and Au, 2005, Gong and Yeh 2006, Mikolajczyk et al. 2007). The order of processing activity is: SENP1 greater than SENP2 greater than SENP5 (Mikolajczyk et al. 2007). Overall, processing of SUMO3 is the lowest of any SUMO (Mikolajczyk et al. 2007). SENP1 and SENP2 shuttle between the nucleus and cytosol and are predominantly nuclear (Bailey and O'Hare 2004, Kim et al. 2005, Zhang et al. 2002, Hang and Dasso 2002, Itahana et al. 2006). SENP5 is located in the nucleolus (Di Bacco et al. 2006, Gong and Yeh 2006).</Comment>
    <BiopaxRef>a48</BiopaxRef>
    <BiopaxRef>b3c</BiopaxRef>
    <BiopaxRef>ba6</BiopaxRef>
    <BiopaxRef>ba0</BiopaxRef>
    <BiopaxRef>fa1</BiopaxRef>
    <BiopaxRef>f27</BiopaxRef>
    <BiopaxRef>b00</BiopaxRef>
    <BiopaxRef>cf1</BiopaxRef>
    <BiopaxRef>d9a</BiopaxRef>
    <Graphics ConnectorType="Segmented" ZOrder="12288" LineThickness="1.0">
      <Point X="717.0" Y="126.0" />
      <Point X="718.0" Y="228.0" />
      <Anchor Position="0.0" Shape="None" GraphId="cd26b" />
      <Anchor Position="0.99" Shape="None" GraphId="f8f9d" />